
  EPA STORM WATER MANAGEMENT MODEL - VERSION 5.1 (Build 5.2.0.dev1)
  --------------------------------------------------------------

  Example 2 
  Surface Drainage System 
  
  
  *********************************************************
  NOTE: The summary statistics displayed in this report are
  based on results found at every computational time step,  
  not just on results from each reporting time step.
  *********************************************************
  
  ****************
  Analysis Options
  ****************
  Flow Units ............... LPS
  Process Models:
    Rainfall/Runoff ........ YES
    RDII ................... NO
    Snowmelt ............... NO
    Groundwater ............ NO
    Flow Routing ........... YES
    Ponding Allowed ........ NO
    Water Quality .......... NO
  Infiltration Method ...... HORTON
  Flow Routing Method ...... DYNWAVE
  Starting Date ............ 01/01/2007 00:00:00
  Ending Date .............. 01/01/2007 12:00:00
  Antecedent Dry Days ...... 0.0
  Report Time Step ......... 00:01:00
  Wet Time Step ............ 00:01:00
  Dry Time Step ............ 01:00:00
  Routing Time Step ........ 15.00 sec
  Variable Time Step ....... YES
  Maximum Trials ........... 8
  Number of Threads ........ 1
  Head Tolerance ........... 0.001524 m
  
  
  **************************        Volume         Depth
  Runoff Quantity Continuity     hectare-m            mm
  **************************     ---------       -------
  Total Precipitation ......         0.106         3.669
  Evaporation Loss .........         0.000         0.000
  Infiltration Loss ........         0.046         1.573
  Surface Runoff ...........         0.015         0.532
  Final Storage ............         0.045         1.564
  Continuity Error (%) .....         0.000
  
  
  **************************        Volume        Volume
  Flow Routing Continuity        hectare-m      10^6 ltr
  **************************     ---------     ---------
  Dry Weather Inflow .......         0.000         0.000
  Wet Weather Inflow .......         0.015         0.154
  Groundwater Inflow .......         0.000         0.000
  RDII Inflow ..............         0.000         0.000
  External Inflow ..........         0.000         0.000
  External Outflow .........         0.015         0.152
  Flooding Loss ............         0.000         0.000
  Evaporation Loss .........         0.000         0.000
  Exfiltration Loss ........         0.000         0.000
  Initial Stored Volume ....         0.000         0.000
  Final Stored Volume ......         0.001         0.007
  Continuity Error (%) .....        -3.714
  
  
  *************************
  Highest Continuity Errors
  *************************
  Node J5 (-2.22%)
  Node J9 (-2.21%)
  Node J8 (1.79%)
  
  
  ***************************
  Time-Step Critical Elements
  ***************************
  None
  
  
  ********************************
  Highest Flow Instability Indexes
  ********************************
  All links are stable.
  
  
  *************************
  Routing Time Step Summary
  *************************
  Minimum Time Step           :    14.50 sec
  Average Time Step           :    14.99 sec
  Maximum Time Step           :    15.00 sec
  Percent in Steady State     :     0.00
  Average Iterations per Step :     2.03
  Percent Not Converging      :     0.28
  
  
  ***************************
  Subcatchment Runoff Summary
  ***************************
  
  --------------------------------------------------------------------------------------------------------
                            Total      Total      Total      Total      Total       Total     Peak  Runoff
                           Precip      Runon       Evap      Infil     Runoff      Runoff   Runoff   Coeff
  Subcatchment                 mm         mm         mm         mm         mm    10^6 ltr      LPS
  --------------------------------------------------------------------------------------------------------
  S1                         3.67       0.00       0.00       1.59       0.53        0.02     4.37   0.145
  S2                         3.67       0.00       0.00       1.36       0.59        0.03     4.73   0.160
  S3                         3.67       0.00       0.00       2.22       0.37        0.01     3.82   0.102
  S4                         3.67       0.00       0.00       1.84       0.47        0.03     7.11   0.128
  S5                         3.67       0.00       0.00       0.45       0.81        0.04     5.30   0.220
  S6                         3.67       0.00       0.00       0.18       0.87        0.02     2.24   0.237
  S7                         3.67       0.00       0.00       3.67       0.00        0.00     0.00   0.000
  
  
  ******************
  Node Depth Summary
  ******************
  
  ---------------------------------------------------------------------------------
                                 Average  Maximum  Maximum  Time of Max    Reported
                                   Depth    Depth      HGL   Occurrence   Max Depth
  Node                 Type       Meters   Meters   Meters  days hr:min      Meters
  ---------------------------------------------------------------------------------
  J1                   JUNCTION     0.27     0.29  4973.29     0  00:46        0.29
  J10                  JUNCTION     0.29     0.33  4967.83     0  01:41        0.33
  J11                  JUNCTION     0.28     0.32  4967.32     0  01:50        0.32
  J2                   JUNCTION     0.28     0.30  4969.30     0  01:08        0.30
  J3                   JUNCTION     0.27     0.31  4971.31     0  00:46        0.31
  J4                   JUNCTION     0.27     0.30  4970.80     0  00:56        0.30
  J5                   JUNCTION     0.27     0.30  4970.30     0  01:09        0.30
  J6                   JUNCTION     0.28     0.32  4969.42     0  00:58        0.32
  J7                   JUNCTION     0.28     0.30  4971.80     0  00:41        0.30
  J8                   JUNCTION     0.28     0.34  4968.94     0  01:12        0.34
  J9                   JUNCTION     0.27     0.32  4968.52     0  01:30        0.32
  O1                   OUTFALL      0.00     0.00  4966.00     0  00:00        0.00
  
  
  *******************
  Node Inflow Summary
  *******************
  
  -------------------------------------------------------------------------------------------------
                                  Maximum  Maximum                  Lateral       Total        Flow
                                  Lateral    Total  Time of Max      Inflow      Inflow     Balance
                                   Inflow   Inflow   Occurrence      Volume      Volume       Error
  Node                 Type           LPS      LPS  days hr:min    10^6 ltr    10^6 ltr     Percent
  -------------------------------------------------------------------------------------------------
  J1                   JUNCTION      4.37     4.37     0  00:45      0.0242      0.0242       4.347
  J10                  JUNCTION      5.30    14.36     0  01:29      0.0387       0.107       0.338
  J11                  JUNCTION      2.24    17.72     0  01:41      0.0172       0.151      -0.783
  J2                   JUNCTION      4.73     4.73     0  00:45      0.0278      0.0278       2.052
  J3                   JUNCTION      3.82     3.82     0  00:40       0.014       0.014      10.128
  J4                   JUNCTION      0.00     3.87     0  00:51           0      0.0127      -0.989
  J5                   JUNCTION      0.00     7.28     0  00:55           0       0.036      -2.168
  J6                   JUNCTION      0.00    10.45     0  01:03           0      0.0683       0.489
  J7                   JUNCTION      7.11     7.11     0  00:40      0.0319      0.0319       0.987
  J8                   JUNCTION      0.00    11.42     0  01:00           0       0.068       1.819
  J9                   JUNCTION      0.00    11.80     0  01:21           0      0.0668      -2.160
  O1                   OUTFALL       0.00    17.22     0  01:50           0       0.152       0.000
  
  
  **********************
  Node Surcharge Summary
  **********************
  
  No nodes were surcharged.
  
  
  *********************
  Node Flooding Summary
  *********************
  
  No nodes were flooded.
  
  
  ***********************
  Outfall Loading Summary
  ***********************
  
  -----------------------------------------------------------
                         Flow       Avg       Max       Total
                         Freq      Flow      Flow      Volume
  Outfall Node           Pcnt       LPS       LPS    10^6 ltr
  -----------------------------------------------------------
  O1                    95.52      3.69     17.22       0.152
  -----------------------------------------------------------
  System                95.52      3.69     17.22       0.152
  
  
  ********************
  Link Flow Summary
  ********************
  
  -----------------------------------------------------------------------------
                                 Maximum  Time of Max   Maximum    Max/    Max/
                                  |Flow|   Occurrence   |Veloc|    Full    Full
  Link                 Type          LPS  days hr:min     m/sec    Flow   Depth
  -----------------------------------------------------------------------------
  C1                   CONDUIT      4.45     0  00:49      0.40    0.00    0.03
  C10                  CONDUIT     13.28     0  01:43      0.32    0.02    0.06
  C11                  CONDUIT     17.22     0  01:50      0.53    0.02    0.05
  C2                   CONDUIT      3.59     0  01:08      0.18    0.01    0.04
  C3                   CONDUIT      3.87     0  00:51      0.22    0.01    0.03
  C4                   CONDUIT      3.29     0  00:56      0.18    0.01    0.03
  C5                   CONDUIT      5.72     0  01:09      0.21    0.01    0.04
  C6                   CONDUIT      7.19     0  00:42      0.43    0.01    0.04
  C7                   CONDUIT     11.42     0  01:00      0.34    0.02    0.06
  C8                   CONDUIT     11.80     0  01:21      0.27    0.02    0.06
  C9                   CONDUIT     10.52     0  01:30      0.25    0.02    0.07
  
  
  ***************************
  Flow Classification Summary
  ***************************
  
  -------------------------------------------------------------------------------------
                      Adjusted    ---------- Fraction of Time in Flow Class ---------- 
                       /Actual         Up    Down  Sub   Sup   Up    Down  Norm  Inlet 
  Conduit               Length    Dry  Dry   Dry   Crit  Crit  Crit  Crit  Ltd   Ctrl  
  -------------------------------------------------------------------------------------
  C1                      1.00   0.04  0.00  0.00  0.94  0.01  0.00  0.02  0.93  0.00
  C10                     1.00   0.04  0.00  0.00  0.96  0.00  0.00  0.01  0.59  0.00
  C11                     1.00   0.04  0.00  0.00  0.00  0.00  0.00  0.96  0.00  0.00
  C2                      1.00   0.04  0.00  0.00  0.96  0.00  0.00  0.01  0.94  0.00
  C3                      1.00   0.04  0.00  0.00  0.94  0.00  0.00  0.02  0.92  0.00
  C4                      1.00   0.05  0.00  0.00  0.94  0.00  0.00  0.00  0.95  0.00
  C5                      1.00   0.04  0.01  0.00  0.95  0.00  0.00  0.00  0.95  0.00
  C6                      1.00   0.03  0.00  0.00  0.94  0.01  0.00  0.01  0.94  0.00
  C7                      1.00   0.04  0.00  0.00  0.93  0.00  0.00  0.03  0.92  0.00
  C8                      1.00   0.06  0.00  0.00  0.92  0.00  0.00  0.02  0.88  0.00
  C9                      1.00   0.04  0.04  0.00  0.92  0.00  0.00  0.00  0.92  0.00
  
  
  *************************
  Conduit Surcharge Summary
  *************************
  
  No conduits were surcharged.
  

  Analysis begun on:  Fri Apr 27 09:33:08 2018
  Analysis ended on:  Fri Apr 27 09:33:08 2018
  Total elapsed time: < 1 sec