
  EPA STORM WATER MANAGEMENT MODEL - VERSION 5.1 (Build 5.2.0.dev1)
  --------------------------------------------------------------

  Example 2 
  Surface Drainage System 
  
  
  *********************************************************
  NOTE: The summary statistics displayed in this report are
  based on results found at every computational time step,  
  not just on results from each reporting time step.
  *********************************************************
  
  ****************
  Analysis Options
  ****************
  Flow Units ............... LPS
  Process Models:
    Rainfall/Runoff ........ YES
    RDII ................... NO
    Snowmelt ............... NO
    Groundwater ............ NO
    Flow Routing ........... YES
    Ponding Allowed ........ NO
    Water Quality .......... NO
  Infiltration Method ...... HORTON
  Flow Routing Method ...... DYNWAVE
  Starting Date ............ 01/01/2007 00:00:00
  Ending Date .............. 01/01/2007 12:00:00
  Antecedent Dry Days ...... 0.0
  Report Time Step ......... 00:01:00
  Wet Time Step ............ 00:01:00
  Dry Time Step ............ 01:00:00
  Routing Time Step ........ 15.00 sec
  Variable Time Step ....... YES
  Maximum Trials ........... 8
  Number of Threads ........ 1
  Head Tolerance ........... 0.001524 m
  
  
  **************************        Volume         Depth
  Runoff Quantity Continuity     hectare-m            mm
  **************************     ---------       -------
  Total Precipitation ......         0.106         3.669
  Evaporation Loss .........         0.000         0.000
  Infiltration Loss ........         0.046         1.573
  Surface Runoff ...........         0.057         1.977
  Final Storage ............         0.003         0.119
  Continuity Error (%) .....        -0.020
  
  
  **************************        Volume        Volume
  Flow Routing Continuity        hectare-m      10^6 ltr
  **************************     ---------     ---------
  Dry Weather Inflow .......         0.000         0.000
  Wet Weather Inflow .......         0.057         0.572
  Groundwater Inflow .......         0.000         0.000
  RDII Inflow ..............         0.000         0.000
  External Inflow ..........         0.000         0.000
  External Outflow .........         0.058         0.578
  Flooding Loss ............         0.000         0.000
  Evaporation Loss .........         0.000         0.000
  Exfiltration Loss ........         0.000         0.000
  Initial Stored Volume ....         0.000         0.000
  Final Stored Volume ......         0.000         0.000
  Continuity Error (%) .....        -1.072
  
  
  *************************
  Highest Continuity Errors
  *************************
  Node J4 (-3.29%)
  Node J9 (-3.22%)
  Node J8 (2.44%)
  Node J5 (-1.46%)
  
  
  ***************************
  Time-Step Critical Elements
  ***************************
  None
  
  
  ********************************
  Highest Flow Instability Indexes
  ********************************
  All links are stable.
  
  
  *************************
  Routing Time Step Summary
  *************************
  Minimum Time Step           :    14.50 sec
  Average Time Step           :    14.99 sec
  Maximum Time Step           :    15.00 sec
  Percent in Steady State     :     0.00
  Average Iterations per Step :     2.00
  Percent Not Converging      :     0.00
  
  
  ***************************
  Subcatchment Runoff Summary
  ***************************
  
  --------------------------------------------------------------------------------------------------------
                            Total      Total      Total      Total      Total       Total     Peak  Runoff
                           Precip      Runon       Evap      Infil     Runoff      Runoff   Runoff   Coeff
  Subcatchment                 mm         mm         mm         mm         mm    10^6 ltr      LPS
  --------------------------------------------------------------------------------------------------------
  S1                         3.67       0.00       0.00       1.59       1.97        0.09    56.96   0.536
  S2                         3.67       0.00       0.00       1.36       2.18        0.10    63.90   0.594
  S3                         3.67       0.00       0.00       2.22       1.37        0.05    37.44   0.373
  S4                         3.67       0.00       0.00       1.84       1.73        0.12    80.79   0.471
  S5                         3.67       0.00       0.00       0.45       3.03        0.15    80.48   0.827
  S6                         3.67       0.00       0.00       0.18       3.29        0.07    34.94   0.896
  S7                         3.67       0.00       0.00       3.67       0.00        0.00     0.00   0.000
  
  
  ******************
  Node Depth Summary
  ******************
  
  ---------------------------------------------------------------------------------
                                 Average  Maximum  Maximum  Time of Max    Reported
                                   Depth    Depth      HGL   Occurrence   Max Depth
  Node                 Type       Meters   Meters   Meters  days hr:min      Meters
  ---------------------------------------------------------------------------------
  J1                   JUNCTION     0.01     0.09  4973.09     0  00:35        0.09
  J10                  JUNCTION     0.03     0.23  4967.73     0  00:46        0.23
  J11                  JUNCTION     0.03     0.20  4967.20     0  00:46        0.20
  J2                   JUNCTION     0.02     0.13  4969.13     0  00:38        0.13
  J3                   JUNCTION     0.01     0.10  4971.10     0  00:35        0.10
  J4                   JUNCTION     0.01     0.10  4970.60     0  00:36        0.10
  J5                   JUNCTION     0.02     0.15  4970.15     0  00:38        0.15
  J6                   JUNCTION     0.02     0.19  4969.29     0  00:38        0.19
  J7                   JUNCTION     0.01     0.11  4971.61     0  00:35        0.11
  J8                   JUNCTION     0.03     0.23  4968.83     0  00:41        0.23
  J9                   JUNCTION     0.03     0.22  4968.42     0  00:44        0.22
  O1                   OUTFALL      0.00     0.00  4966.00     0  00:00        0.00
  
  
  *******************
  Node Inflow Summary
  *******************
  
  -------------------------------------------------------------------------------------------------
                                  Maximum  Maximum                  Lateral       Total        Flow
                                  Lateral    Total  Time of Max      Inflow      Inflow     Balance
                                   Inflow   Inflow   Occurrence      Volume      Volume       Error
  Node                 Type           LPS      LPS  days hr:min    10^6 ltr    10^6 ltr     Percent
  -------------------------------------------------------------------------------------------------
  J1                   JUNCTION     56.96    56.96     0  00:35      0.0895      0.0895      -0.150
  J10                  JUNCTION     80.48   163.96     0  00:43       0.145       0.408      -0.040
  J11                  JUNCTION     34.94   211.69     0  00:45      0.0651       0.578       0.010
  J2                   JUNCTION     63.90    63.90     0  00:35       0.103       0.103      -1.276
  J3                   JUNCTION     37.44    37.44     0  00:35      0.0512      0.0512       1.911
  J4                   JUNCTION      0.00    35.54     0  00:35           0      0.0502      -3.181
  J5                   JUNCTION      0.00    86.43     0  00:36           0       0.141      -1.440
  J6                   JUNCTION      0.00   138.97     0  00:35           0       0.261       0.095
  J7                   JUNCTION     80.79    80.79     0  00:35       0.117       0.117       0.074
  J8                   JUNCTION      0.00   129.75     0  00:38           0       0.261       2.501
  J9                   JUNCTION      0.00   126.69     0  00:41           0       0.254      -3.124
  O1                   OUTFALL       0.00   208.40     0  00:46           0       0.578       0.000
  
  
  **********************
  Node Surcharge Summary
  **********************
  
  No nodes were surcharged.
  
  
  *********************
  Node Flooding Summary
  *********************
  
  No nodes were flooded.
  
  
  ***********************
  Outfall Loading Summary
  ***********************
  
  -----------------------------------------------------------
                         Flow       Avg       Max       Total
                         Freq      Flow      Flow      Volume
  Outfall Node           Pcnt       LPS       LPS    10^6 ltr
  -----------------------------------------------------------
  O1                    85.73     15.59    208.40       0.578
  -----------------------------------------------------------
  System                85.73     15.59    208.40       0.578
  
  
  ********************
  Link Flow Summary
  ********************
  
  -----------------------------------------------------------------------------
                                 Maximum  Time of Max   Maximum    Max/    Max/
                                  |Flow|   Occurrence   |Veloc|    Full    Full
  Link                 Type          LPS  days hr:min     m/sec    Flow   Depth
  -----------------------------------------------------------------------------
  C1                   CONDUIT     55.05     0  00:35      1.11    0.02    0.11
  C10                  CONDUIT    155.61     0  00:46      1.20    0.11    0.22
  C11                  CONDUIT    208.40     0  00:46      1.94    0.08    0.19
  C2                   CONDUIT     48.97     0  00:38      0.74    0.03    0.15
  C3                   CONDUIT     35.54     0  00:35      0.83    0.02    0.10
  C4                   CONDUIT     32.78     0  00:36      0.60    0.02    0.12
  C5                   CONDUIT     73.40     0  00:38      0.85    0.05    0.16
  C6                   CONDUIT     79.46     0  00:35      1.22    0.03    0.14
  C7                   CONDUIT    129.75     0  00:38      1.21    0.07    0.20
  C8                   CONDUIT    126.69     0  00:41      1.02    0.11    0.22
  C9                   CONDUIT    117.02     0  00:44      0.91    0.10    0.22
  
  
  ***************************
  Flow Classification Summary
  ***************************
  
  -------------------------------------------------------------------------------------
                      Adjusted    ---------- Fraction of Time in Flow Class ---------- 
                       /Actual         Up    Down  Sub   Sup   Up    Down  Norm  Inlet 
  Conduit               Length    Dry  Dry   Dry   Crit  Crit  Crit  Crit  Ltd   Ctrl  
  -------------------------------------------------------------------------------------
  C1                      1.00   0.00  0.00  0.00  0.95  0.05  0.00  0.01  0.98  0.00
  C10                     1.00   0.00  0.00  0.00  0.85  0.00  0.00  0.15  0.68  0.00
  C11                     1.00   0.00  0.00  0.00  0.00  0.00  0.00  1.00  0.00  0.00
  C2                      1.00   0.00  0.00  0.00  1.00  0.00  0.00  0.00  0.98  0.00
  C3                      1.00   0.00  0.00  0.00  0.97  0.01  0.00  0.01  0.95  0.00
  C4                      1.00   0.01  0.00  0.00  0.99  0.00  0.00  0.00  0.98  0.00
  C5                      1.00   0.00  0.00  0.00  0.99  0.00  0.00  0.00  1.00  0.00
  C6                      1.00   0.00  0.00  0.00  0.95  0.03  0.00  0.02  0.98  0.00
  C7                      1.00   0.00  0.00  0.00  0.95  0.02  0.00  0.03  0.95  0.00
  C8                      1.00   0.01  0.00  0.00  0.95  0.00  0.00  0.04  0.94  0.00
  C9                      1.00   0.00  0.02  0.00  0.98  0.00  0.00  0.00  0.98  0.00
  
  
  *************************
  Conduit Surcharge Summary
  *************************
  
  No conduits were surcharged.
  

  Analysis begun on:  Wed Apr 25 15:24:22 2018
  Analysis ended on:  Wed Apr 25 15:24:23 2018
  Total elapsed time: 00:00:01