
  EPA STORM WATER MANAGEMENT MODEL - VERSION 5.1 (Build 5.2.0.dev1)
  --------------------------------------------------------------

  Example 2 
  Surface Drainage System 
  
  
  *********************************************************
  NOTE: The summary statistics displayed in this report are
  based on results found at every computational time step,  
  not just on results from each reporting time step.
  *********************************************************
  
  ****************
  Analysis Options
  ****************
  Flow Units ............... LPS
  Process Models:
    Rainfall/Runoff ........ YES
    RDII ................... NO
    Snowmelt ............... NO
    Groundwater ............ NO
    Flow Routing ........... YES
    Ponding Allowed ........ NO
    Water Quality .......... NO
  Infiltration Method ...... HORTON
  Flow Routing Method ...... DYNWAVE
  Starting Date ............ 01/01/2007 00:00:00
  Ending Date .............. 01/01/2007 12:00:00
  Antecedent Dry Days ...... 0.0
  Report Time Step ......... 00:01:00
  Wet Time Step ............ 00:01:00
  Dry Time Step ............ 01:00:00
  Routing Time Step ........ 15.00 sec
  Variable Time Step ....... YES
  Maximum Trials ........... 8
  Number of Threads ........ 1
  Head Tolerance ........... 0.001524 m
  
  
  **************************        Volume         Depth
  Runoff Quantity Continuity     hectare-m            mm
  **************************     ---------       -------
  Total Precipitation ......         0.106         3.669
  Evaporation Loss .........         0.000         0.000
  Infiltration Loss ........         0.046         1.573
  Surface Runoff ...........         0.039         1.362
  Final Storage ............         0.021         0.734
  Continuity Error (%) .....        -0.017
  
  
  **************************        Volume        Volume
  Flow Routing Continuity        hectare-m      10^6 ltr
  **************************     ---------     ---------
  Dry Weather Inflow .......         0.000         0.000
  Wet Weather Inflow .......         0.039         0.394
  Groundwater Inflow .......         0.000         0.000
  RDII Inflow ..............         0.000         0.000
  External Inflow ..........         0.000         0.000
  External Outflow .........         0.040         0.396
  Flooding Loss ............         0.000         0.000
  Evaporation Loss .........         0.000         0.000
  Exfiltration Loss ........         0.000         0.000
  Initial Stored Volume ....         0.000         0.000
  Final Stored Volume ......         0.000         0.000
  Continuity Error (%) .....        -0.560
  
  
  *************************
  Highest Continuity Errors
  *************************
  Node J8 (3.43%)
  Node J9 (-3.29%)
  Node J4 (-2.99%)
  
  
  ***************************
  Time-Step Critical Elements
  ***************************
  None
  
  
  ********************************
  Highest Flow Instability Indexes
  ********************************
  All links are stable.
  
  
  *************************
  Routing Time Step Summary
  *************************
  Minimum Time Step           :    14.50 sec
  Average Time Step           :    14.99 sec
  Maximum Time Step           :    15.00 sec
  Percent in Steady State     :     0.00
  Average Iterations per Step :     2.00
  Percent Not Converging      :     0.00
  
  
  ***************************
  Subcatchment Runoff Summary
  ***************************
  
  --------------------------------------------------------------------------------------------------------
                            Total      Total      Total      Total      Total       Total     Peak  Runoff
                           Precip      Runon       Evap      Infil     Runoff      Runoff   Runoff   Coeff
  Subcatchment                 mm         mm         mm         mm         mm    10^6 ltr      LPS
  --------------------------------------------------------------------------------------------------------
  S1                         3.67       0.00       0.00       1.59       1.35        0.06    44.59   0.369
  S2                         3.67       0.00       0.00       1.36       1.50        0.07    51.11   0.409
  S3                         3.67       0.00       0.00       2.22       0.94        0.04    26.29   0.257
  S4                         3.67       0.00       0.00       1.84       1.19        0.08    59.59   0.324
  S5                         3.67       0.00       0.00       0.45       2.09        0.10    69.53   0.570
  S6                         3.67       0.00       0.00       0.18       2.27        0.04    30.82   0.617
  S7                         3.67       0.00       0.00       3.67       0.00        0.00     0.00   0.000
  
  
  ******************
  Node Depth Summary
  ******************
  
  ---------------------------------------------------------------------------------
                                 Average  Maximum  Maximum  Time of Max    Reported
                                   Depth    Depth      HGL   Occurrence   Max Depth
  Node                 Type       Meters   Meters   Meters  days hr:min      Meters
  ---------------------------------------------------------------------------------
  J1                   JUNCTION     0.01     0.09  4973.09     0  00:35        0.09
  J10                  JUNCTION     0.03     0.19  4967.69     0  00:45        0.19
  J11                  JUNCTION     0.03     0.17  4967.17     0  00:43        0.17
  J2                   JUNCTION     0.02     0.12  4969.12     0  00:36        0.12
  J3                   JUNCTION     0.01     0.09  4971.09     0  00:35        0.09
  J4                   JUNCTION     0.01     0.09  4970.59     0  00:36        0.09
  J5                   JUNCTION     0.02     0.13  4970.13     0  00:37        0.13
  J6                   JUNCTION     0.02     0.16  4969.26     0  00:37        0.16
  J7                   JUNCTION     0.01     0.10  4971.60     0  00:35        0.10
  J8                   JUNCTION     0.02     0.20  4968.80     0  00:40        0.20
  J9                   JUNCTION     0.02     0.19  4968.39     0  00:44        0.19
  O1                   OUTFALL      0.00     0.00  4966.00     0  00:00        0.00
  
  
  *******************
  Node Inflow Summary
  *******************
  
  -------------------------------------------------------------------------------------------------
                                  Maximum  Maximum                  Lateral       Total        Flow
                                  Lateral    Total  Time of Max      Inflow      Inflow     Balance
                                   Inflow   Inflow   Occurrence      Volume      Volume       Error
  Node                 Type           LPS      LPS  days hr:min    10^6 ltr    10^6 ltr     Percent
  -------------------------------------------------------------------------------------------------
  J1                   JUNCTION     44.59    44.59     0  00:35      0.0616      0.0616       0.245
  J10                  JUNCTION     69.53   105.88     0  00:43         0.1       0.278      -0.068
  J11                  JUNCTION     30.82   139.31     0  00:40      0.0448       0.396      -0.039
  J2                   JUNCTION     51.11    51.11     0  00:35      0.0712      0.0712      -1.557
  J3                   JUNCTION     26.29    26.29     0  00:35      0.0352      0.0352       0.383
  J4                   JUNCTION      0.00    26.12     0  00:35           0      0.0351      -2.907
  J5                   JUNCTION      0.00    66.69     0  00:35           0      0.0976      -0.620
  J6                   JUNCTION      0.00   104.82     0  00:35           0       0.179       0.065
  J7                   JUNCTION     59.59    59.59     0  00:35      0.0808      0.0808       0.296
  J8                   JUNCTION      0.00    92.75     0  00:37           0       0.179       3.548
  J9                   JUNCTION      0.00    88.68     0  00:41           0       0.173      -3.187
  O1                   OUTFALL       0.00   136.38     0  00:44           0       0.396       0.000
  
  
  **********************
  Node Surcharge Summary
  **********************
  
  No nodes were surcharged.
  
  
  *********************
  Node Flooding Summary
  *********************
  
  No nodes were flooded.
  
  
  ***********************
  Outfall Loading Summary
  ***********************
  
  -----------------------------------------------------------
                         Flow       Avg       Max       Total
                         Freq      Flow      Flow      Volume
  Outfall Node           Pcnt       LPS       LPS    10^6 ltr
  -----------------------------------------------------------
  O1                    61.19     14.97    136.38       0.396
  -----------------------------------------------------------
  System                61.19     14.97    136.38       0.396
  
  
  ********************
  Link Flow Summary
  ********************
  
  -----------------------------------------------------------------------------
                                 Maximum  Time of Max   Maximum    Max/    Max/
                                  |Flow|   Occurrence   |Veloc|    Full    Full
  Link                 Type          LPS  days hr:min     m/sec    Flow   Depth
  -----------------------------------------------------------------------------
  C1                   CONDUIT     43.52     0  00:35      1.01    0.02    0.10
  C10                  CONDUIT    101.09     0  00:45      1.02    0.08    0.18
  C11                  CONDUIT    136.38     0  00:44      1.61    0.06    0.16
  C2                   CONDUIT     38.19     0  00:36      0.63    0.03    0.13
  C3                   CONDUIT     26.12     0  00:35      0.72    0.02    0.09
  C4                   CONDUIT     23.96     0  00:36      0.51    0.02    0.11
  C5                   CONDUIT     53.31     0  00:37      0.74    0.04    0.15
  C6                   CONDUIT     58.95     0  00:35      1.06    0.02    0.13
  C7                   CONDUIT     92.75     0  00:37      1.04    0.06    0.18
  C8                   CONDUIT     88.68     0  00:41      0.87    0.08    0.19
  C9                   CONDUIT     80.09     0  00:44      0.77    0.08    0.19
  
  
  ***************************
  Flow Classification Summary
  ***************************
  
  -------------------------------------------------------------------------------------
                      Adjusted    ---------- Fraction of Time in Flow Class ---------- 
                       /Actual         Up    Down  Sub   Sup   Up    Down  Norm  Inlet 
  Conduit               Length    Dry  Dry   Dry   Crit  Crit  Crit  Crit  Ltd   Ctrl  
  -------------------------------------------------------------------------------------
  C1                      1.00   0.00  0.00  0.00  0.95  0.04  0.00  0.01  0.98  0.00
  C10                     1.00   0.00  0.00  0.00  0.95  0.00  0.00  0.05  0.72  0.00
  C11                     1.00   0.00  0.00  0.00  0.00  0.00  0.00  1.00  0.00  0.00
  C2                      1.00   0.00  0.00  0.00  1.00  0.00  0.00  0.00  0.98  0.00
  C3                      1.00   0.00  0.00  0.00  0.98  0.01  0.00  0.01  0.95  0.00
  C4                      1.00   0.00  0.00  0.00  0.99  0.00  0.00  0.00  0.99  0.00
  C5                      1.00   0.00  0.00  0.00  1.00  0.00  0.00  0.00  1.00  0.00
  C6                      1.00   0.00  0.00  0.00  0.95  0.03  0.00  0.02  0.98  0.00
  C7                      1.00   0.00  0.00  0.00  0.97  0.00  0.00  0.02  0.96  0.00
  C8                      1.00   0.01  0.00  0.00  0.95  0.00  0.00  0.04  0.94  0.00
  C9                      1.00   0.00  0.01  0.00  0.98  0.00  0.00  0.00  0.98  0.00
  
  
  *************************
  Conduit Surcharge Summary
  *************************
  
  No conduits were surcharged.
  

  Analysis begun on:  Wed Apr 25 15:10:52 2018
  Analysis ended on:  Wed Apr 25 15:10:52 2018
  Total elapsed time: < 1 sec