
  EPA STORM WATER MANAGEMENT MODEL - VERSION 5.1 (Build 5.2.0.dev1)
  --------------------------------------------------------------

  Example 2 
  Surface Drainage System 
  
  
  *********************************************************
  NOTE: The summary statistics displayed in this report are
  based on results found at every computational time step,  
  not just on results from each reporting time step.
  *********************************************************
  
  ****************
  Analysis Options
  ****************
  Flow Units ............... LPS
  Process Models:
    Rainfall/Runoff ........ YES
    RDII ................... NO
    Snowmelt ............... NO
    Groundwater ............ NO
    Flow Routing ........... YES
    Ponding Allowed ........ NO
    Water Quality .......... NO
  Infiltration Method ...... HORTON
  Flow Routing Method ...... DYNWAVE
  Starting Date ............ 01/01/2007 00:00:00
  Ending Date .............. 01/01/2007 12:00:00
  Antecedent Dry Days ...... 0.0
  Report Time Step ......... 00:01:00
  Wet Time Step ............ 00:01:00
  Dry Time Step ............ 01:00:00
  Routing Time Step ........ 15.00 sec
  Variable Time Step ....... YES
  Maximum Trials ........... 8
  Number of Threads ........ 1
  Head Tolerance ........... 0.001524 m
  
  
  **************************        Volume         Depth
  Runoff Quantity Continuity     hectare-m            mm
  **************************     ---------       -------
  Total Precipitation ......         0.106         3.669
  Evaporation Loss .........         0.000         0.000
  Infiltration Loss ........         0.046         1.573
  Surface Runoff ...........         0.032         1.111
  Final Storage ............         0.029         0.986
  Continuity Error (%) .....        -0.029
  
  
  **************************        Volume        Volume
  Flow Routing Continuity        hectare-m      10^6 ltr
  **************************     ---------     ---------
  Dry Weather Inflow .......         0.000         0.000
  Wet Weather Inflow .......         0.032         0.321
  Groundwater Inflow .......         0.000         0.000
  RDII Inflow ..............         0.000         0.000
  External Inflow ..........         0.000         0.000
  External Outflow .........         0.032         0.323
  Flooding Loss ............         0.000         0.000
  Evaporation Loss .........         0.000         0.000
  Exfiltration Loss ........         0.000         0.000
  Initial Stored Volume ....         0.000         0.000
  Final Stored Volume ......         0.000         0.001
  Continuity Error (%) .....        -0.831
  
  
  *************************
  Highest Continuity Errors
  *************************
  Node J8 (2.70%)
  Node J9 (-2.64%)
  Node J4 (-2.10%)
  Node J5 (-1.84%)
  
  
  ***************************
  Time-Step Critical Elements
  ***************************
  None
  
  
  ********************************
  Highest Flow Instability Indexes
  ********************************
  All links are stable.
  
  
  *************************
  Routing Time Step Summary
  *************************
  Minimum Time Step           :    14.50 sec
  Average Time Step           :    14.99 sec
  Maximum Time Step           :    15.00 sec
  Percent in Steady State     :     0.00
  Average Iterations per Step :     2.00
  Percent Not Converging      :     0.00
  
  
  ***************************
  Subcatchment Runoff Summary
  ***************************
  
  --------------------------------------------------------------------------------------------------------
                            Total      Total      Total      Total      Total       Total     Peak  Runoff
                           Precip      Runon       Evap      Infil     Runoff      Runoff   Runoff   Coeff
  Subcatchment                 mm         mm         mm         mm         mm    10^6 ltr      LPS
  --------------------------------------------------------------------------------------------------------
  S1                         3.67       0.00       0.00       1.59       1.10        0.05    18.88   0.301
  S2                         3.67       0.00       0.00       1.36       1.23        0.06    20.80   0.334
  S3                         3.67       0.00       0.00       2.22       0.77        0.03    13.96   0.210
  S4                         3.67       0.00       0.00       1.84       0.97        0.07    28.40   0.265
  S5                         3.67       0.00       0.00       0.45       1.70        0.08    26.63   0.465
  S6                         3.67       0.00       0.00       0.18       1.85        0.04    11.64   0.503
  S7                         3.67       0.00       0.00       3.67       0.00        0.00     0.00   0.000
  
  
  ******************
  Node Depth Summary
  ******************
  
  ---------------------------------------------------------------------------------
                                 Average  Maximum  Maximum  Time of Max    Reported
                                   Depth    Depth      HGL   Occurrence   Max Depth
  Node                 Type       Meters   Meters   Meters  days hr:min      Meters
  ---------------------------------------------------------------------------------
  J1                   JUNCTION     0.05     0.09  4973.09     0  00:44        0.09
  J10                  JUNCTION     0.07     0.18  4967.68     0  01:06        0.18
  J11                  JUNCTION     0.06     0.15  4967.15     0  01:09        0.15
  J2                   JUNCTION     0.05     0.11  4969.11     0  00:49        0.11
  J3                   JUNCTION     0.05     0.10  4971.10     0  00:41        0.10
  J4                   JUNCTION     0.05     0.10  4970.60     0  00:45        0.10
  J5                   JUNCTION     0.05     0.12  4970.12     0  00:50        0.12
  J6                   JUNCTION     0.06     0.14  4969.24     0  00:50        0.14
  J7                   JUNCTION     0.05     0.10  4971.60     0  00:41        0.10
  J8                   JUNCTION     0.06     0.18  4968.78     0  00:54        0.18
  J9                   JUNCTION     0.06     0.16  4968.36     0  01:02        0.16
  O1                   OUTFALL      0.00     0.00  4966.00     0  00:00        0.00
  
  
  *******************
  Node Inflow Summary
  *******************
  
  -------------------------------------------------------------------------------------------------
                                  Maximum  Maximum                  Lateral       Total        Flow
                                  Lateral    Total  Time of Max      Inflow      Inflow     Balance
                                   Inflow   Inflow   Occurrence      Volume      Volume       Error
  Node                 Type           LPS      LPS  days hr:min    10^6 ltr    10^6 ltr     Percent
  -------------------------------------------------------------------------------------------------
  J1                   JUNCTION     18.88    18.88     0  00:40      0.0503      0.0503       2.004
  J10                  JUNCTION     26.63    52.09     0  01:01      0.0817       0.226      -0.116
  J11                  JUNCTION     11.64    66.20     0  01:05      0.0366       0.321      -0.551
  J2                   JUNCTION     20.80    20.80     0  00:40      0.0581      0.0581      -0.617
  J3                   JUNCTION     13.96    13.96     0  00:40      0.0288      0.0288       1.357
  J4                   JUNCTION      0.00    13.09     0  00:42           0      0.0284      -2.057
  J5                   JUNCTION      0.00    29.82     0  00:45           0      0.0783      -1.809
  J6                   JUNCTION      0.00    44.70     0  00:46           0       0.145       0.412
  J7                   JUNCTION     28.40    28.40     0  00:40      0.0659      0.0659       1.284
  J8                   JUNCTION      0.00    41.59     0  00:50           0       0.144       2.780
  J9                   JUNCTION      0.00    41.50     0  00:57           0        0.14      -2.570
  O1                   OUTFALL       0.00    64.64     0  01:09           0       0.323       0.000
  
  
  **********************
  Node Surcharge Summary
  **********************
  
  No nodes were surcharged.
  
  
  *********************
  Node Flooding Summary
  *********************
  
  No nodes were flooded.
  
  
  ***********************
  Outfall Loading Summary
  ***********************
  
  -----------------------------------------------------------
                         Flow       Avg       Max       Total
                         Freq      Flow      Flow      Volume
  Outfall Node           Pcnt       LPS       LPS    10^6 ltr
  -----------------------------------------------------------
  O1                    97.85      7.63     64.64       0.323
  -----------------------------------------------------------
  System                97.85      7.63     64.64       0.323
  
  
  ********************
  Link Flow Summary
  ********************
  
  -----------------------------------------------------------------------------
                                 Maximum  Time of Max   Maximum    Max/    Max/
                                  |Flow|   Occurrence   |Veloc|    Full    Full
  Link                 Type          LPS  days hr:min     m/sec    Flow   Depth
  -----------------------------------------------------------------------------
  C1                   CONDUIT     18.14     0  00:44      0.73    0.01    0.06
  C10                  CONDUIT     49.04     0  01:06      0.70    0.05    0.12
  C11                  CONDUIT     64.64     0  01:09      1.08    0.03    0.11
  C2                   CONDUIT     16.11     0  00:49      0.43    0.01    0.08
  C3                   CONDUIT     13.09     0  00:42      0.49    0.01    0.06
  C4                   CONDUIT     11.70     0  00:45      0.38    0.01    0.07
  C5                   CONDUIT     23.94     0  00:50      0.48    0.02    0.09
  C6                   CONDUIT     27.19     0  00:41      0.88    0.01    0.08
  C7                   CONDUIT     41.59     0  00:50      0.70    0.03    0.12
  C8                   CONDUIT     41.50     0  00:57      0.58    0.05    0.13
  C9                   CONDUIT     37.41     0  01:02      0.50    0.04    0.13
  
  
  ***************************
  Flow Classification Summary
  ***************************
  
  -------------------------------------------------------------------------------------
                      Adjusted    ---------- Fraction of Time in Flow Class ---------- 
                       /Actual         Up    Down  Sub   Sup   Up    Down  Norm  Inlet 
  Conduit               Length    Dry  Dry   Dry   Crit  Crit  Crit  Crit  Ltd   Ctrl  
  -------------------------------------------------------------------------------------
  C1                      1.00   0.01  0.00  0.00  0.94  0.02  0.00  0.03  0.94  0.00
  C10                     1.00   0.01  0.00  0.00  0.99  0.00  0.00  0.00  0.66  0.00
  C11                     1.00   0.01  0.00  0.00  0.00  0.00  0.00  0.99  0.00  0.00
  C2                      1.00   0.01  0.00  0.00  0.99  0.00  0.00  0.00  0.96  0.00
  C3                      1.00   0.01  0.00  0.00  0.97  0.00  0.00  0.02  0.94  0.00
  C4                      1.00   0.02  0.01  0.00  0.97  0.00  0.00  0.00  0.97  0.00
  C5                      1.00   0.02  0.00  0.00  0.98  0.00  0.00  0.00  0.98  0.00
  C6                      1.00   0.01  0.00  0.00  0.94  0.02  0.00  0.03  0.95  0.00
  C7                      1.00   0.02  0.00  0.00  0.94  0.00  0.00  0.04  0.94  0.00
  C8                      1.00   0.04  0.00  0.00  0.93  0.00  0.00  0.03  0.92  0.00
  C9                      1.00   0.01  0.04  0.00  0.95  0.00  0.00  0.00  0.95  0.00
  
  
  *************************
  Conduit Surcharge Summary
  *************************
  
  No conduits were surcharged.
  

  Analysis begun on:  Tue Apr 24 11:48:32 2018
  Analysis ended on:  Tue Apr 24 11:48:34 2018
  Total elapsed time: 00:00:02