
  EPA STORM WATER MANAGEMENT MODEL - VERSION 5.1 (Build 5.2.0.dev1)
  --------------------------------------------------------------

  Example 2 
  Surface Drainage System 
  
  
  *********************************************************
  NOTE: The summary statistics displayed in this report are
  based on results found at every computational time step,  
  not just on results from each reporting time step.
  *********************************************************
  
  ****************
  Analysis Options
  ****************
  Flow Units ............... LPS
  Process Models:
    Rainfall/Runoff ........ YES
    RDII ................... NO
    Snowmelt ............... NO
    Groundwater ............ NO
    Flow Routing ........... YES
    Ponding Allowed ........ NO
    Water Quality .......... NO
  Infiltration Method ...... HORTON
  Flow Routing Method ...... DYNWAVE
  Starting Date ............ 01/01/2007 00:00:00
  Ending Date .............. 01/01/2007 12:00:00
  Antecedent Dry Days ...... 0.0
  Report Time Step ......... 00:01:00
  Wet Time Step ............ 00:01:00
  Dry Time Step ............ 01:00:00
  Routing Time Step ........ 15.00 sec
  Variable Time Step ....... YES
  Maximum Trials ........... 8
  Number of Threads ........ 1
  Head Tolerance ........... 0.001524 m
  
  
  **************************        Volume         Depth
  Runoff Quantity Continuity     hectare-m            mm
  **************************     ---------       -------
  Total Precipitation ......         0.106         3.669
  Evaporation Loss .........         0.000         0.000
  Infiltration Loss ........         0.046         1.573
  Surface Runoff ...........         0.015         0.524
  Final Storage ............         0.045         1.572
  Continuity Error (%) .....        -0.003
  
  
  **************************        Volume        Volume
  Flow Routing Continuity        hectare-m      10^6 ltr
  **************************     ---------     ---------
  Dry Weather Inflow .......         0.000         0.000
  Wet Weather Inflow .......         0.015         0.152
  Groundwater Inflow .......         0.000         0.000
  RDII Inflow ..............         0.000         0.000
  External Inflow ..........         0.000         0.000
  External Outflow .........         0.015         0.154
  Flooding Loss ............         0.000         0.000
  Evaporation Loss .........         0.000         0.000
  Exfiltration Loss ........         0.000         0.000
  Initial Stored Volume ....         0.000         0.000
  Final Stored Volume ......         0.001         0.005
  Continuity Error (%) .....        -4.923
  
  
  *************************
  Highest Continuity Errors
  *************************
  Node J5 (-5.68%)
  Node J9 (-4.97%)
  Node J4 (-3.67%)
  Node J11 (-1.94%)
  Node J8 (1.58%)
  
  
  ***************************
  Time-Step Critical Elements
  ***************************
  None
  
  
  ********************************
  Highest Flow Instability Indexes
  ********************************
  All links are stable.
  
  
  *************************
  Routing Time Step Summary
  *************************
  Minimum Time Step           :    14.50 sec
  Average Time Step           :    14.99 sec
  Maximum Time Step           :    15.00 sec
  Percent in Steady State     :     0.00
  Average Iterations per Step :     2.04
  Percent Not Converging      :     0.38
  
  
  ***************************
  Subcatchment Runoff Summary
  ***************************
  
  --------------------------------------------------------------------------------------------------------
                            Total      Total      Total      Total      Total       Total     Peak  Runoff
                           Precip      Runon       Evap      Infil     Runoff      Runoff   Runoff   Coeff
  Subcatchment                 mm         mm         mm         mm         mm    10^6 ltr      LPS
  --------------------------------------------------------------------------------------------------------
  S1                         3.67       0.00       0.00       1.59       0.52        0.02    12.75   0.142
  S2                         3.67       0.00       0.00       1.36       0.58        0.03    14.21   0.158
  S3                         3.67       0.00       0.00       2.22       0.36        0.01     8.74   0.099
  S4                         3.67       0.00       0.00       1.84       0.46        0.03    18.47   0.125
  S5                         3.67       0.00       0.00       0.45       0.80        0.04    17.49   0.219
  S6                         3.67       0.00       0.00       0.18       0.87        0.02     7.55   0.237
  S7                         3.67       0.00       0.00       3.67       0.00        0.00     0.00   0.000
  
  
  ******************
  Node Depth Summary
  ******************
  
  ---------------------------------------------------------------------------------
                                 Average  Maximum  Maximum  Time of Max    Reported
                                   Depth    Depth      HGL   Occurrence   Max Depth
  Node                 Type       Meters   Meters   Meters  days hr:min      Meters
  ---------------------------------------------------------------------------------
  J1                   JUNCTION     0.28     0.31  4973.31     0  00:38        0.31
  J10                  JUNCTION     0.29     0.35  4967.85     0  01:13        0.35
  J11                  JUNCTION     0.29     0.33  4967.33     0  01:14        0.33
  J2                   JUNCTION     0.29     0.32  4969.32     0  00:45        0.32
  J3                   JUNCTION     0.28     0.32  4971.32     0  00:37        0.32
  J4                   JUNCTION     0.28     0.31  4970.81     0  00:43        0.31
  J5                   JUNCTION     0.28     0.32  4970.32     0  00:48        0.32
  J6                   JUNCTION     0.29     0.34  4969.44     0  00:45        0.34
  J7                   JUNCTION     0.29     0.32  4971.82     0  00:36        0.32
  J8                   JUNCTION     0.28     0.36  4968.96     0  00:54        0.36
  J9                   JUNCTION     0.28     0.34  4968.54     0  01:06        0.34
  O1                   OUTFALL      0.00     0.00  4966.00     0  00:00        0.00
  
  
  *******************
  Node Inflow Summary
  *******************
  
  -------------------------------------------------------------------------------------------------
                                  Maximum  Maximum                  Lateral       Total        Flow
                                  Lateral    Total  Time of Max      Inflow      Inflow     Balance
                                   Inflow   Inflow   Occurrence      Volume      Volume       Error
  Node                 Type           LPS      LPS  days hr:min    10^6 ltr    10^6 ltr     Percent
  -------------------------------------------------------------------------------------------------
  J1                   JUNCTION     12.75    12.75     0  00:35      0.0237      0.0237       6.100
  J10                  JUNCTION     17.49    20.76     0  01:05      0.0385       0.107       0.004
  J11                  JUNCTION      7.55    25.56     0  00:45      0.0172       0.151      -1.901
  J2                   JUNCTION     14.21    14.21     0  00:35      0.0274      0.0274       1.961
  J3                   JUNCTION      8.74     8.74     0  00:35      0.0136      0.0136      13.482
  J4                   JUNCTION      0.00     7.32     0  00:39           0       0.012      -3.543
  J5                   JUNCTION      0.00    15.16     0  00:41           0      0.0347      -5.374
  J6                   JUNCTION      0.00    20.79     0  00:38           0      0.0663       0.182
  J7                   JUNCTION     18.47    18.47     0  00:35      0.0311      0.0311       5.312
  J8                   JUNCTION      0.00    19.68     0  00:46           0      0.0661       1.607
  J9                   JUNCTION      0.00    18.81     0  00:59           0      0.0651      -4.738
  O1                   OUTFALL       0.00    23.91     0  01:14           0       0.154       0.000
  
  
  **********************
  Node Surcharge Summary
  **********************
  
  No nodes were surcharged.
  
  
  *********************
  Node Flooding Summary
  *********************
  
  No nodes were flooded.
  
  
  ***********************
  Outfall Loading Summary
  ***********************
  
  -----------------------------------------------------------
                         Flow       Avg       Max       Total
                         Freq      Flow      Flow      Volume
  Outfall Node           Pcnt       LPS       LPS    10^6 ltr
  -----------------------------------------------------------
  O1                    96.74      3.68     23.91       0.154
  -----------------------------------------------------------
  System                96.74      3.68     23.91       0.154
  
  
  ********************
  Link Flow Summary
  ********************
  
  -----------------------------------------------------------------------------
                                 Maximum  Time of Max   Maximum    Max/    Max/
                                  |Flow|   Occurrence   |Veloc|    Full    Full
  Link                 Type          LPS  days hr:min     m/sec    Flow   Depth
  -----------------------------------------------------------------------------
  C1                   CONDUIT     10.71     0  00:38      0.49    0.01    0.04
  C10                  CONDUIT     18.57     0  01:13      0.38    0.03    0.07
  C11                  CONDUIT     23.91     0  01:14      0.61    0.02    0.06
  C2                   CONDUIT      8.04     0  00:45      0.26    0.01    0.05
  C3                   CONDUIT      7.32     0  00:39      0.30    0.01    0.04
  C4                   CONDUIT      5.89     0  00:43      0.22    0.01    0.04
  C5                   CONDUIT     11.01     0  00:48      0.28    0.02    0.06
  C6                   CONDUIT     16.50     0  00:36      0.57    0.01    0.05
  C7                   CONDUIT     19.68     0  00:46      0.43    0.03    0.08
  C8                   CONDUIT     18.81     0  00:59      0.34    0.04    0.08
  C9                   CONDUIT     16.29     0  01:06      0.30    0.03    0.08
  
  
  ***************************
  Flow Classification Summary
  ***************************
  
  -------------------------------------------------------------------------------------
                      Adjusted    ---------- Fraction of Time in Flow Class ---------- 
                       /Actual         Up    Down  Sub   Sup   Up    Down  Norm  Inlet 
  Conduit               Length    Dry  Dry   Dry   Crit  Crit  Crit  Crit  Ltd   Ctrl  
  -------------------------------------------------------------------------------------
  C1                      1.00   0.02  0.00  0.00  0.95  0.01  0.00  0.02  0.95  0.00
  C10                     1.00   0.02  0.00  0.00  0.97  0.00  0.00  0.01  0.66  0.00
  C11                     1.00   0.03  0.00  0.00  0.00  0.00  0.00  0.97  0.00  0.00
  C2                      1.00   0.02  0.00  0.00  0.97  0.00  0.00  0.01  0.95  0.00
  C3                      1.00   0.02  0.00  0.00  0.95  0.00  0.00  0.02  0.94  0.00
  C4                      1.00   0.04  0.01  0.00  0.96  0.00  0.00  0.00  0.96  0.00
  C5                      1.00   0.03  0.01  0.00  0.96  0.00  0.00  0.00  0.96  0.00
  C6                      1.00   0.02  0.00  0.00  0.95  0.00  0.00  0.03  0.95  0.00
  C7                      1.00   0.03  0.00  0.00  0.95  0.00  0.00  0.02  0.94  0.00
  C8                      1.00   0.05  0.00  0.00  0.94  0.00  0.00  0.02  0.91  0.00
  C9                      1.00   0.02  0.04  0.00  0.94  0.00  0.00  0.00  0.94  0.00
  
  
  *************************
  Conduit Surcharge Summary
  *************************
  
  No conduits were surcharged.
  

  Analysis begun on:  Wed Apr 25 17:37:10 2018
  Analysis ended on:  Wed Apr 25 17:37:10 2018
  Total elapsed time: < 1 sec