
  EPA STORM WATER MANAGEMENT MODEL - VERSION 5.1 (Build 5.2.0.dev1)
  --------------------------------------------------------------

  Example 2 
  Surface Drainage System 
  
  
  *********************************************************
  NOTE: The summary statistics displayed in this report are
  based on results found at every computational time step,  
  not just on results from each reporting time step.
  *********************************************************
  
  ****************
  Analysis Options
  ****************
  Flow Units ............... LPS
  Process Models:
    Rainfall/Runoff ........ YES
    RDII ................... NO
    Snowmelt ............... NO
    Groundwater ............ NO
    Flow Routing ........... YES
    Ponding Allowed ........ NO
    Water Quality .......... NO
  Infiltration Method ...... HORTON
  Flow Routing Method ...... DYNWAVE
  Starting Date ............ 01/01/2007 00:00:00
  Ending Date .............. 01/01/2007 12:00:00
  Antecedent Dry Days ...... 0.0
  Report Time Step ......... 00:01:00
  Wet Time Step ............ 00:01:00
  Dry Time Step ............ 01:00:00
  Routing Time Step ........ 15.00 sec
  Variable Time Step ....... YES
  Maximum Trials ........... 8
  Number of Threads ........ 1
  Head Tolerance ........... 0.001524 m
  
  
  **************************        Volume         Depth
  Runoff Quantity Continuity     hectare-m            mm
  **************************     ---------       -------
  Total Precipitation ......         0.106         3.669
  Evaporation Loss .........         0.000         0.000
  Infiltration Loss ........         0.046         1.573
  Surface Runoff ...........         0.039         1.352
  Final Storage ............         0.022         0.744
  Continuity Error (%) .....        -0.015
  
  
  **************************        Volume        Volume
  Flow Routing Continuity        hectare-m      10^6 ltr
  **************************     ---------     ---------
  Dry Weather Inflow .......         0.000         0.000
  Wet Weather Inflow .......         0.039         0.391
  Groundwater Inflow .......         0.000         0.000
  RDII Inflow ..............         0.000         0.000
  External Inflow ..........         0.000         0.000
  External Outflow .........         0.040         0.397
  Flooding Loss ............         0.000         0.000
  Evaporation Loss .........         0.000         0.000
  Exfiltration Loss ........         0.000         0.000
  Initial Stored Volume ....         0.000         0.000
  Final Stored Volume ......         0.001         0.009
  Continuity Error (%) .....        -4.043
  
  
  *************************
  Highest Continuity Errors
  *************************
  Node J9 (-3.10%)
  Node J6 (1.86%)
  Node J4 (1.55%)
  Node J8 (-1.44%)
  
  
  ***************************
  Time-Step Critical Elements
  ***************************
  None
  
  
  ********************************
  Highest Flow Instability Indexes
  ********************************
  All links are stable.
  
  
  *************************
  Routing Time Step Summary
  *************************
  Minimum Time Step           :    14.50 sec
  Average Time Step           :    14.99 sec
  Maximum Time Step           :    15.00 sec
  Percent in Steady State     :     0.00
  Average Iterations per Step :     2.01
  Percent Not Converging      :     0.10
  
  
  ***************************
  Subcatchment Runoff Summary
  ***************************
  
  --------------------------------------------------------------------------------------------------------
                            Total      Total      Total      Total      Total       Total     Peak  Runoff
                           Precip      Runon       Evap      Infil     Runoff      Runoff   Runoff   Coeff
  Subcatchment                 mm         mm         mm         mm         mm    10^6 ltr      LPS
  --------------------------------------------------------------------------------------------------------
  S1                         3.67       0.00       0.00       1.59       1.76        0.08    53.75   0.481
  S2                         3.67       0.00       0.00       1.36       0.84        0.04    28.60   0.229
  S3                         3.67       0.00       0.00       2.22       0.10        0.00     2.83   0.028
  S4                         3.67       0.00       0.00       1.84       1.43        0.10    57.79   0.389
  S5                         3.67       0.00       0.00       0.45       2.43        0.12    40.45   0.663
  S6                         3.67       0.00       0.00       0.18       2.71        0.05    25.86   0.738
  S7                         3.67       0.00       0.00       3.67       0.00        0.00     0.00   0.000
  
  
  ******************
  Node Depth Summary
  ******************
  
  ---------------------------------------------------------------------------------
                                 Average  Maximum  Maximum  Time of Max    Reported
                                   Depth    Depth      HGL   Occurrence   Max Depth
  Node                 Type       Meters   Meters   Meters  days hr:min      Meters
  ---------------------------------------------------------------------------------
  J1                   JUNCTION     0.07     0.14  4973.14     0  00:35        0.14
  J10                  JUNCTION     0.05     0.21  4967.71     0  00:45        0.21
  J11                  JUNCTION     0.08     0.20  4967.20     0  00:47        0.20
  J2                   JUNCTION     0.07     0.13  4969.13     0  00:37        0.13
  J3                   JUNCTION     0.06     0.08  4971.08     0  00:36        0.08
  J4                   JUNCTION     0.04     0.05  4970.55     0  00:42        0.05
  J5                   JUNCTION     0.10     0.18  4970.18     0  00:39        0.18
  J6                   JUNCTION     0.07     0.19  4969.29     0  00:38        0.19
  J7                   JUNCTION     0.03     0.11  4971.61     0  00:35        0.11
  J8                   JUNCTION     0.03     0.18  4968.78     0  00:41        0.18
  J9                   JUNCTION     0.10     0.23  4968.43     0  00:48        0.23
  O1                   OUTFALL      0.00     0.00  4966.00     0  00:00        0.00
  
  
  *******************
  Node Inflow Summary
  *******************
  
  -------------------------------------------------------------------------------------------------
                                  Maximum  Maximum                  Lateral       Total        Flow
                                  Lateral    Total  Time of Max      Inflow      Inflow     Balance
                                   Inflow   Inflow   Occurrence      Volume      Volume       Error
  Node                 Type           LPS      LPS  days hr:min    10^6 ltr    10^6 ltr     Percent
  -------------------------------------------------------------------------------------------------
  J1                   JUNCTION     53.75    53.75     0  00:35      0.0803      0.0803       1.261
  J10                  JUNCTION     40.45    94.28     0  00:45       0.116       0.301      -0.590
  J11                  JUNCTION     25.86   123.23     0  00:44      0.0536       0.396      -0.445
  J2                   JUNCTION     28.60    28.60     0  00:35      0.0399      0.0399       0.720
  J3                   JUNCTION      2.83     2.83     0  00:35      0.0038      0.0038       1.477
  J4                   JUNCTION      0.00     1.87     0  00:37           0     0.00374       1.570
  J5                   JUNCTION      0.00    52.33     0  00:35           0      0.0829       0.600
  J6                   JUNCTION      0.00    86.99     0  00:35           0        0.18       1.900
  J7                   JUNCTION     57.79    57.79     0  00:35      0.0969      0.0969      -0.146
  J8                   JUNCTION      0.00    72.39     0  00:39           0       0.176      -1.424
  J9                   JUNCTION      0.00    71.14     0  00:41           0       0.179      -3.011
  O1                   OUTFALL       0.00   117.96     0  00:48           0       0.397       0.000
  
  
  **********************
  Node Surcharge Summary
  **********************
  
  No nodes were surcharged.
  
  
  *********************
  Node Flooding Summary
  *********************
  
  No nodes were flooded.
  
  
  ***********************
  Outfall Loading Summary
  ***********************
  
  -----------------------------------------------------------
                         Flow       Avg       Max       Total
                         Freq      Flow      Flow      Volume
  Outfall Node           Pcnt       LPS       LPS    10^6 ltr
  -----------------------------------------------------------
  O1                    97.88      9.40    117.96       0.397
  -----------------------------------------------------------
  System                97.88      9.40    117.96       0.397
  
  
  ********************
  Link Flow Summary
  ********************
  
  -----------------------------------------------------------------------------
                                 Maximum  Time of Max   Maximum    Max/    Max/
                                  |Flow|   Occurrence   |Veloc|    Full    Full
  Link                 Type          LPS  days hr:min     m/sec    Flow   Depth
  -----------------------------------------------------------------------------
  C1                   CONDUIT     51.63     0  00:35      0.91    0.02    0.10
  C10                  CONDUIT     93.94     0  00:46      0.85    0.08    0.18
  C11                  CONDUIT    117.96     0  00:48      1.29    0.06    0.15
  C2                   CONDUIT     18.28     0  00:37      0.40    0.02    0.10
  C3                   CONDUIT      1.87     0  00:37      0.27    0.00    0.02
  C4                   CONDUIT      1.45     0  00:42      0.04    0.00    0.08
  C5                   CONDUIT     38.45     0  00:39      0.61    0.03    0.10
  C6                   CONDUIT     56.98     0  00:35      0.87    0.02    0.13
  C7                   CONDUIT     72.39     0  00:39      0.88    0.05    0.14
  C8                   CONDUIT     71.14     0  00:41      0.68    0.07    0.20
  C9                   CONDUIT     61.25     0  00:47      0.60    0.07    0.16
  
  
  ***************************
  Flow Classification Summary
  ***************************
  
  -------------------------------------------------------------------------------------
                      Adjusted    ---------- Fraction of Time in Flow Class ---------- 
                       /Actual         Up    Down  Sub   Sup   Up    Down  Norm  Inlet 
  Conduit               Length    Dry  Dry   Dry   Crit  Crit  Crit  Crit  Ltd   Ctrl  
  -------------------------------------------------------------------------------------
  C1                      1.00   0.01  0.00  0.00  0.96  0.01  0.00  0.02  0.97  0.00
  C10                     1.00   0.01  0.00  0.00  0.99  0.00  0.00  0.00  0.96  0.00
  C11                     1.00   0.02  0.00  0.00  0.00  0.00  0.00  0.98  0.00  0.00
  C2                      1.00   0.01  0.00  0.00  0.98  0.00  0.00  0.02  0.97  0.00
  C3                      1.00   0.01  0.00  0.00  0.00  0.00  0.00  0.99  0.00  0.00
  C4                      1.00   0.01  0.02  0.00  0.97  0.00  0.00  0.00  0.97  0.00
  C5                      1.00   0.03  0.00  0.00  0.11  0.00  0.00  0.86  0.03  0.00
  C6                      1.00   0.00  0.00  0.00  0.99  0.00  0.00  0.00  0.99  0.00
  C7                      1.00   0.01  0.00  0.00  0.04  0.00  0.00  0.95  0.02  0.00
  C8                      1.00   0.01  0.00  0.00  0.98  0.00  0.00  0.00  0.97  0.00
  C9                      1.00   0.03  0.00  0.00  0.14  0.00  0.00  0.83  0.00  0.00
  
  
  *************************
  Conduit Surcharge Summary
  *************************
  
  No conduits were surcharged.
  

  Analysis begun on:  Mon Apr 23 16:18:22 2018
  Analysis ended on:  Mon Apr 23 16:18:23 2018
  Total elapsed time: 00:00:01