
  EPA STORM WATER MANAGEMENT MODEL - VERSION 5.1 (Build 5.2.0.dev1)
  --------------------------------------------------------------

  Example 2 
  Surface Drainage System 
  
  
  *********************************************************
  NOTE: The summary statistics displayed in this report are
  based on results found at every computational time step,  
  not just on results from each reporting time step.
  *********************************************************
  
  ****************
  Analysis Options
  ****************
  Flow Units ............... LPS
  Process Models:
    Rainfall/Runoff ........ YES
    RDII ................... NO
    Snowmelt ............... NO
    Groundwater ............ NO
    Flow Routing ........... YES
    Ponding Allowed ........ NO
    Water Quality .......... NO
  Infiltration Method ...... HORTON
  Flow Routing Method ...... DYNWAVE
  Starting Date ............ 01/01/2007 00:00:00
  Ending Date .............. 01/01/2007 12:00:00
  Antecedent Dry Days ...... 0.0
  Report Time Step ......... 00:01:00
  Wet Time Step ............ 00:01:00
  Dry Time Step ............ 01:00:00
  Routing Time Step ........ 15.00 sec
  Variable Time Step ....... YES
  Maximum Trials ........... 8
  Number of Threads ........ 1
  Head Tolerance ........... 0.001524 m
  
  
  **************************        Volume         Depth
  Runoff Quantity Continuity     hectare-m            mm
  **************************     ---------       -------
  Total Precipitation ......         0.106         3.669
  Evaporation Loss .........         0.000         0.000
  Infiltration Loss ........         0.046         1.573
  Surface Runoff ...........         0.022         0.748
  Final Storage ............         0.039         1.348
  Continuity Error (%) .....        -0.006
  
  
  **************************        Volume        Volume
  Flow Routing Continuity        hectare-m      10^6 ltr
  **************************     ---------     ---------
  Dry Weather Inflow .......         0.000         0.000
  Wet Weather Inflow .......         0.022         0.216
  Groundwater Inflow .......         0.000         0.000
  RDII Inflow ..............         0.000         0.000
  External Inflow ..........         0.000         0.000
  External Outflow .........         0.021         0.207
  Flooding Loss ............         0.000         0.000
  Evaporation Loss .........         0.000         0.000
  Exfiltration Loss ........         0.000         0.000
  Initial Stored Volume ....         0.000         0.000
  Final Stored Volume ......         0.001         0.005
  Continuity Error (%) .....         1.708
  
  
  *************************
  Highest Continuity Errors
  *************************
  Node J8 (6.30%)
  Node J5 (-5.62%)
  Node J4 (5.44%)
  Node J11 (-1.11%)
  
  
  ***************************
  Time-Step Critical Elements
  ***************************
  None
  
  
  ********************************
  Highest Flow Instability Indexes
  ********************************
  All links are stable.
  
  
  *************************
  Routing Time Step Summary
  *************************
  Minimum Time Step           :    14.50 sec
  Average Time Step           :    14.99 sec
  Maximum Time Step           :    15.00 sec
  Percent in Steady State     :     0.00
  Average Iterations per Step :     2.01
  Percent Not Converging      :     0.03
  
  
  ***************************
  Subcatchment Runoff Summary
  ***************************
  
  --------------------------------------------------------------------------------------------------------
                            Total      Total      Total      Total      Total       Total     Peak  Runoff
                           Precip      Runon       Evap      Infil     Runoff      Runoff   Runoff   Coeff
  Subcatchment                 mm         mm         mm         mm         mm    10^6 ltr      LPS
  --------------------------------------------------------------------------------------------------------
  S1                         3.67       0.00       0.00       1.59       1.46        0.07    41.28   0.399
  S2                         3.67       0.00       0.00       1.36       0.14        0.01     4.82   0.039
  S3                         3.67       0.00       0.00       2.22       1.14        0.04    29.59   0.310
  S4                         3.67       0.00       0.00       1.84       1.04        0.07    44.24   0.284
  S5                         3.67       0.00       0.00       0.45       0.31        0.01     8.22   0.085
  S6                         3.67       0.00       0.00       0.18       0.75        0.01     3.25   0.205
  S7                         3.67       0.00       0.00       3.67       0.00        0.00     0.00   0.000
  
  
  ******************
  Node Depth Summary
  ******************
  
  ---------------------------------------------------------------------------------
                                 Average  Maximum  Maximum  Time of Max    Reported
                                   Depth    Depth      HGL   Occurrence   Max Depth
  Node                 Type       Meters   Meters   Meters  days hr:min      Meters
  ---------------------------------------------------------------------------------
  J1                   JUNCTION     0.07     0.14  4973.14     0  00:35        0.14
  J10                  JUNCTION     0.04     0.16  4967.66     0  00:57        0.16
  J11                  JUNCTION     0.04     0.12  4967.12     0  01:01        0.12
  J2                   JUNCTION     0.05     0.07  4969.07     0  00:42        0.07
  J3                   JUNCTION     0.02     0.11  4971.11     0  00:35        0.11
  J4                   JUNCTION     0.10     0.17  4970.67     0  00:36        0.17
  J5                   JUNCTION     0.08     0.18  4970.18     0  00:40        0.18
  J6                   JUNCTION     0.02     0.16  4969.26     0  00:41        0.16
  J7                   JUNCTION     0.06     0.13  4971.63     0  00:35        0.13
  J8                   JUNCTION     0.10     0.25  4968.85     0  00:45        0.25
  J9                   JUNCTION     0.09     0.23  4968.43     0  00:53        0.23
  O1                   OUTFALL      0.00     0.00  4966.00     0  00:00        0.00
  
  
  *******************
  Node Inflow Summary
  *******************
  
  -------------------------------------------------------------------------------------------------
                                  Maximum  Maximum                  Lateral       Total        Flow
                                  Lateral    Total  Time of Max      Inflow      Inflow     Balance
                                   Inflow   Inflow   Occurrence      Volume      Volume       Error
  Node                 Type           LPS      LPS  days hr:min    10^6 ltr    10^6 ltr     Percent
  -------------------------------------------------------------------------------------------------
  J1                   JUNCTION     41.28    41.28     0  00:35      0.0666      0.0666       2.419
  J10                  JUNCTION      8.22    55.41     0  00:53      0.0149       0.183      -0.647
  J11                  JUNCTION      3.25    54.82     0  00:57      0.0149       0.205      -1.102
  J2                   JUNCTION      4.82     4.82     0  00:35     0.00672     0.00672      15.166
  J3                   JUNCTION     29.59    29.59     0  00:35      0.0425      0.0425      -0.395
  J4                   JUNCTION      0.00    28.36     0  00:35           0      0.0427       5.757
  J5                   JUNCTION      0.00    64.38     0  00:36           0       0.105      -5.317
  J6                   JUNCTION      0.00    80.94     0  00:38           0        0.18      -0.466
  J7                   JUNCTION     44.24    44.24     0  00:35      0.0707      0.0707       2.469
  J8                   JUNCTION      0.00    77.58     0  00:41           0       0.181       6.721
  J9                   JUNCTION      0.00    73.17     0  00:46           0        0.17       0.865
  O1                   OUTFALL       0.00    52.53     0  01:01           0       0.207       0.000
  
  
  **********************
  Node Surcharge Summary
  **********************
  
  No nodes were surcharged.
  
  
  *********************
  Node Flooding Summary
  *********************
  
  No nodes were flooded.
  
  
  ***********************
  Outfall Loading Summary
  ***********************
  
  -----------------------------------------------------------
                         Flow       Avg       Max       Total
                         Freq      Flow      Flow      Volume
  Outfall Node           Pcnt       LPS       LPS    10^6 ltr
  -----------------------------------------------------------
  O1                    97.60      4.91     52.53       0.207
  -----------------------------------------------------------
  System                97.60      4.91     52.53       0.207
  
  
  ********************
  Link Flow Summary
  ********************
  
  -----------------------------------------------------------------------------
                                 Maximum  Time of Max   Maximum    Max/    Max/
                                  |Flow|   Occurrence   |Veloc|    Full    Full
  Link                 Type          LPS  days hr:min     m/sec    Flow   Depth
  -----------------------------------------------------------------------------
  C1                   CONDUIT     39.27     0  00:35      0.83    0.02    0.09
  C10                  CONDUIT     52.77     0  00:57      0.76    0.05    0.14
  C11                  CONDUIT     52.53     0  01:01      1.04    0.03    0.10
  C2                   CONDUIT      1.92     0  00:43      0.21    0.00    0.04
  C3                   CONDUIT     28.36     0  00:35      0.45    0.02    0.13
  C4                   CONDUIT     25.98     0  00:36      0.52    0.02    0.09
  C5                   CONDUIT     50.07     0  00:40      0.75    0.04    0.11
  C6                   CONDUIT     42.62     0  00:35      1.02    0.02    0.08
  C7                   CONDUIT     77.58     0  00:41      0.73    0.05    0.20
  C8                   CONDUIT     73.17     0  00:46      0.70    0.08    0.16
  C9                   CONDUIT     53.03     0  00:54      0.61    0.06    0.14
  
  
  ***************************
  Flow Classification Summary
  ***************************
  
  -------------------------------------------------------------------------------------
                      Adjusted    ---------- Fraction of Time in Flow Class ---------- 
                       /Actual         Up    Down  Sub   Sup   Up    Down  Norm  Inlet 
  Conduit               Length    Dry  Dry   Dry   Crit  Crit  Crit  Crit  Ltd   Ctrl  
  -------------------------------------------------------------------------------------
  C1                      1.00   0.01  0.00  0.00  0.67  0.01  0.00  0.32  0.64  0.00
  C10                     1.00   0.01  0.00  0.00  0.96  0.00  0.00  0.04  0.74  0.00
  C11                     1.00   0.02  0.00  0.00  0.00  0.00  0.00  0.98  0.00  0.00
  C2                      1.00   0.01  0.00  0.00  0.20  0.00  0.00  0.79  0.17  0.00
  C3                      1.00   0.00  0.00  0.00  0.99  0.00  0.00  0.01  0.98  0.00
  C4                      1.00   0.03  0.00  0.00  0.16  0.00  0.00  0.81  0.07  0.00
  C5                      1.00   0.01  0.00  0.00  0.02  0.00  0.00  0.96  0.00  0.00
  C6                      1.00   0.01  0.00  0.00  0.04  0.02  0.00  0.93  0.05  0.00
  C7                      1.00   0.01  0.00  0.00  0.99  0.00  0.00  0.00  0.98  0.00
  C8                      1.00   0.03  0.00  0.00  0.42  0.00  0.00  0.55  0.34  0.00
  C9                      1.00   0.04  0.00  0.00  0.04  0.00  0.00  0.92  0.00  0.00
  
  
  *************************
  Conduit Surcharge Summary
  *************************
  
  No conduits were surcharged.
  

  Analysis begun on:  Mon Apr 23 16:40:48 2018
  Analysis ended on:  Mon Apr 23 16:40:49 2018
  Total elapsed time: 00:00:01