
  EPA STORM WATER MANAGEMENT MODEL - VERSION 5.1 (Build 5.2.0.dev1)
  --------------------------------------------------------------

  Example 2 
  Surface Drainage System 
  
  
  *********************************************************
  NOTE: The summary statistics displayed in this report are
  based on results found at every computational time step,  
  not just on results from each reporting time step.
  *********************************************************
  
  ****************
  Analysis Options
  ****************
  Flow Units ............... LPS
  Process Models:
    Rainfall/Runoff ........ YES
    RDII ................... NO
    Snowmelt ............... NO
    Groundwater ............ NO
    Flow Routing ........... YES
    Ponding Allowed ........ NO
    Water Quality .......... NO
  Infiltration Method ...... HORTON
  Flow Routing Method ...... DYNWAVE
  Starting Date ............ 01/01/2007 00:00:00
  Ending Date .............. 01/01/2007 12:00:00
  Antecedent Dry Days ...... 0.0
  Report Time Step ......... 00:01:00
  Wet Time Step ............ 00:01:00
  Dry Time Step ............ 01:00:00
  Routing Time Step ........ 15.00 sec
  Variable Time Step ....... YES
  Maximum Trials ........... 8
  Number of Threads ........ 1
  Head Tolerance ........... 0.001524 m
  
  
  **************************        Volume         Depth
  Runoff Quantity Continuity     hectare-m            mm
  **************************     ---------       -------
  Total Precipitation ......         0.106         3.669
  Evaporation Loss .........         0.000         0.000
  Infiltration Loss ........         0.020         0.703
  Surface Runoff ...........         0.085         2.941
  Final Storage ............         0.001         0.026
  Continuity Error (%) .....        -0.029
  
  
  **************************        Volume        Volume
  Flow Routing Continuity        hectare-m      10^6 ltr
  **************************     ---------     ---------
  Dry Weather Inflow .......         0.000         0.000
  Wet Weather Inflow .......         0.085         0.850
  Groundwater Inflow .......         0.000         0.000
  RDII Inflow ..............         0.000         0.000
  External Inflow ..........         0.000         0.000
  External Outflow .........         0.086         0.860
  Flooding Loss ............         0.000         0.000
  Evaporation Loss .........         0.000         0.000
  Exfiltration Loss ........         0.000         0.000
  Initial Stored Volume ....         0.000         0.000
  Final Stored Volume ......         0.000         0.000
  Continuity Error (%) .....        -1.158
  
  
  *************************
  Highest Continuity Errors
  *************************
  Node J9 (-1.87%)
  Node J4 (-1.65%)
  Node J8 (1.61%)
  Node J10 (-1.40%)
  
  
  ***************************
  Time-Step Critical Elements
  ***************************
  None
  
  
  ********************************
  Highest Flow Instability Indexes
  ********************************
  All links are stable.
  
  
  *************************
  Routing Time Step Summary
  *************************
  Minimum Time Step           :    14.50 sec
  Average Time Step           :    14.99 sec
  Maximum Time Step           :    15.00 sec
  Percent in Steady State     :     0.00
  Average Iterations per Step :     2.00
  Percent Not Converging      :     0.00
  
  
  ***************************
  Subcatchment Runoff Summary
  ***************************
  
  --------------------------------------------------------------------------------------------------------
                            Total      Total      Total      Total      Total       Total     Peak  Runoff
                           Precip      Runon       Evap      Infil     Runoff      Runoff   Runoff   Coeff
  Subcatchment                 mm         mm         mm         mm         mm    10^6 ltr      LPS
  --------------------------------------------------------------------------------------------------------
  S1                         3.67       0.00       0.00       0.71       2.94        0.13    74.44   0.801
  S2                         3.67       0.00       0.00       0.59       3.05        0.14    83.92   0.831
  S3                         3.67       0.00       0.00       0.99       2.66        0.10    49.49   0.726
  S4                         3.67       0.00       0.00       0.81       2.83        0.19   104.72   0.772
  S5                         3.67       0.00       0.00       0.18       3.45        0.17   107.51   0.940
  S6                         3.67       0.00       0.00       0.07       3.56        0.07    46.28   0.969
  S7                         3.67       0.00       0.00       1.75       1.92        0.04     9.47   0.522
  
  
  ******************
  Node Depth Summary
  ******************
  
  ---------------------------------------------------------------------------------
                                 Average  Maximum  Maximum  Time of Max    Reported
                                   Depth    Depth      HGL   Occurrence   Max Depth
  Node                 Type       Meters   Meters   Meters  days hr:min      Meters
  ---------------------------------------------------------------------------------
  J1                   JUNCTION     0.01     0.15  4973.15     0  00:35        0.14
  J10                  JUNCTION     0.05     0.32  4967.82     0  00:46        0.32
  J11                  JUNCTION     0.04     0.26  4967.26     0  00:46        0.26
  J2                   JUNCTION     0.02     0.20  4969.20     0  00:37        0.20
  J3                   JUNCTION     0.02     0.17  4971.17     0  00:35        0.17
  J4                   JUNCTION     0.02     0.15  4970.65     0  00:36        0.15
  J5                   JUNCTION     0.03     0.22  4970.22     0  00:38        0.22
  J6                   JUNCTION     0.03     0.26  4969.36     0  00:38        0.26
  J7                   JUNCTION     0.01     0.15  4971.65     0  00:35        0.15
  J8                   JUNCTION     0.04     0.32  4968.92     0  00:40        0.32
  J9                   JUNCTION     0.04     0.30  4968.50     0  00:44        0.30
  O1                   OUTFALL      0.00     0.00  4966.00     0  00:00        0.00
  
  
  *******************
  Node Inflow Summary
  *******************
  
  -------------------------------------------------------------------------------------------------
                                  Maximum  Maximum                  Lateral       Total        Flow
                                  Lateral    Total  Time of Max      Inflow      Inflow     Balance
                                   Inflow   Inflow   Occurrence      Volume      Volume       Error
  Node                 Type           LPS      LPS  days hr:min    10^6 ltr    10^6 ltr     Percent
  -------------------------------------------------------------------------------------------------
  J1                   JUNCTION     74.44    74.44     0  00:35       0.134       0.134       0.255
  J10                  JUNCTION    113.74   210.63     0  00:43        0.21       0.637      -1.378
  J11                  JUNCTION     46.28   265.01     0  00:44      0.0704       0.862       0.176
  J2                   JUNCTION     83.92    83.92     0  00:35       0.144       0.144      -0.773
  J3                   JUNCTION     49.49    49.49     0  00:35      0.0996      0.0996       1.122
  J4                   JUNCTION      0.00    47.77     0  00:35           0      0.0985      -1.622
  J5                   JUNCTION      0.00   112.57     0  00:35           0       0.233      -0.388
  J6                   JUNCTION      0.00   180.41     0  00:35           0       0.426       0.125
  J7                   JUNCTION    104.72   104.72     0  00:35       0.192       0.192       0.142
  J8                   JUNCTION      0.00   165.53     0  00:38           0       0.426       1.632
  J9                   JUNCTION      0.00   166.90     0  00:41           0       0.419      -1.833
  O1                   OUTFALL       0.00   262.83     0  00:46           0        0.86       0.000
  
  
  **********************
  Node Surcharge Summary
  **********************
  
  No nodes were surcharged.
  
  
  *********************
  Node Flooding Summary
  *********************
  
  No nodes were flooded.
  
  
  ***********************
  Outfall Loading Summary
  ***********************
  
  -----------------------------------------------------------
                         Flow       Avg       Max       Total
                         Freq      Flow      Flow      Volume
  Outfall Node           Pcnt       LPS       LPS    10^6 ltr
  -----------------------------------------------------------
  O1                    68.00     29.27    262.83       0.860
  -----------------------------------------------------------
  System                68.00     29.27    262.83       0.860
  
  
  ********************
  Link Flow Summary
  ********************
  
  -----------------------------------------------------------------------------
                                 Maximum  Time of Max   Maximum    Max/    Max/
                                  |Flow|   Occurrence   |Veloc|    Full    Full
  Link                 Type          LPS  days hr:min     m/sec    Flow   Depth
  -----------------------------------------------------------------------------
  C1                   CONDUIT     72.03     0  00:35      1.22    0.18    0.35
  C10                  CONDUIT    201.30     0  00:46      1.21    0.32    0.37
  C11                  CONDUIT    262.83     0  00:46      1.84    0.23    0.33
  C2                   CONDUIT     63.78     0  00:37      0.82    0.34    0.44
  C3                   CONDUIT     47.77     0  00:35      0.90    0.23    0.32
  C4                   CONDUIT     43.49     0  00:36      0.60    0.14    0.31
  C5                   CONDUIT     94.24     0  00:38      0.88    0.29    0.40
  C6                   CONDUIT    102.80     0  00:35      1.18    0.10    0.28
  C7                   CONDUIT    165.53     0  00:38      1.17    0.30    0.42
  C8                   CONDUIT    166.90     0  00:41      0.99    0.32    0.38
  C9                   CONDUIT    153.77     0  00:44      0.85    0.31    0.39
  
  
  ***************************
  Flow Classification Summary
  ***************************
  
  -------------------------------------------------------------------------------------
                      Adjusted    ---------- Fraction of Time in Flow Class ---------- 
                       /Actual         Up    Down  Sub   Sup   Up    Down  Norm  Inlet 
  Conduit               Length    Dry  Dry   Dry   Crit  Crit  Crit  Crit  Ltd   Ctrl  
  -------------------------------------------------------------------------------------
  C1                      1.00   0.00  0.00  0.00  0.95  0.03  0.00  0.02  0.98  0.00
  C10                     1.00   0.00  0.00  0.00  0.89  0.00  0.00  0.11  0.61  0.00
  C11                     1.00   0.00  0.00  0.00  0.00  0.00  0.00  1.00  0.00  0.00
  C2                      1.00   0.00  0.00  0.00  1.00  0.00  0.00  0.00  0.97  0.00
  C3                      1.00   0.00  0.00  0.00  0.71  0.00  0.00  0.29  0.36  0.00
  C4                      1.00   0.00  0.00  0.00  1.00  0.00  0.00  0.00  0.99  0.00
  C5                      1.00   0.00  0.00  0.00  1.00  0.00  0.00  0.00  1.00  0.00
  C6                      1.00   0.00  0.00  0.00  0.96  0.03  0.00  0.01  0.98  0.00
  C7                      1.00   0.00  0.00  0.00  0.98  0.00  0.00  0.02  0.95  0.00
  C8                      1.00   0.00  0.00  0.00  0.96  0.00  0.00  0.04  0.94  0.00
  C9                      1.00   0.00  0.01  0.00  0.99  0.00  0.00  0.00  0.99  0.00
  
  
  *************************
  Conduit Surcharge Summary
  *************************
  
  No conduits were surcharged.
  

  Analysis begun on:  Fri Apr 20 10:33:30 2018
  Analysis ended on:  Fri Apr 20 10:33:31 2018
  Total elapsed time: 00:00:01